6364642
  -OEChem-05091719173D

 40 42  0     1  0  0  0  0  0999 V2000
   -0.5631    0.2568    0.9508 O   0  0  0  0  0  0  0  0  0  0  0  0
   -2.3459    0.6612    2.3412 O   0  0  0  0  0  0  0  0  0  0  0  0
   -3.7848   -1.2589   -1.7345 O   0  0  0  0  0  0  0  0  0  0  0  0
   -5.8979   -0.6877   -1.1665 O   0  0  0  0  0  0  0  0  0  0  0  0
   -2.6447    0.2611    0.0756 N   0  0  0  0  0  0  0  0  0  0  0  0
    1.7495    0.1812    1.5453 C   0  0  0  0  0  0  0  0  0  0  0  0
    2.1467    1.1833    0.4707 C   0  0  0  0  0  0  0  0  0  0  0  0
    1.9256   -1.1401    0.8106 C   0  0  0  0  0  0  0  0  0  0  0  0
    2.5168    0.5117   -0.7165 C   0  0  0  0  0  0  0  0  0  0  0  0
    2.3811   -0.9137   -0.5080 C   0  0  0  0  0  0  0  0  0  0  0  0
    0.3257    0.3900    2.0457 C   0  0  0  0  0  0  0  0  0  0  0  0
    2.1889    2.5653    0.5578 C   0  0  0  0  0  0  0  0  0  0  0  0
    1.7145   -2.4235    1.2878 C   0  0  0  0  0  0  0  0  0  0  0  0
    2.9244    1.2248   -1.8322 C   0  0  0  0  0  0  0  0  0  0  0  0
    2.6201   -1.9767   -1.3637 C   0  0  0  0  0  0  0  0  0  0  0  0
    2.5998    3.2834   -0.5667 C   0  0  0  0  0  0  0  0  0  0  0  0
    1.9552   -3.4943    0.4250 C   0  0  0  0  0  0  0  0  0  0  0  0
    2.9630    2.6199   -1.7504 C   0  0  0  0  0  0  0  0  0  0  0  0
    2.4029   -3.2732   -0.8880 C   0  0  0  0  0  0  0  0  0  0  0  0
   -1.8993    0.4162    1.2253 C   0  0  0  0  0  0  0  0  0  0  0  0
   -4.0848    0.3694    0.0328 C   0  0  1  0  0  0  0  0  0  0  0  0
   -4.5054    1.8061   -0.2376 C   0  0  0  0  0  0  0  0  0  0  0  0
   -4.6886   -0.5625   -1.0045 C   0  0  0  0  0  0  0  0  0  0  0  0
    2.4717    0.2359    2.3685 H   0  0  0  0  0  0  0  0  0  0  0  0
    0.2170    1.3865    2.4903 H   0  0  0  0  0  0  0  0  0  0  0  0
    0.0795   -0.3611    2.8061 H   0  0  0  0  0  0  0  0  0  0  0  0
    1.9137    3.0816    1.4708 H   0  0  0  0  0  0  0  0  0  0  0  0
    1.3732   -2.5989    2.3021 H   0  0  0  0  0  0  0  0  0  0  0  0
    3.2100    0.7267   -2.7527 H   0  0  0  0  0  0  0  0  0  0  0  0
    2.9680   -1.8221   -2.3796 H   0  0  0  0  0  0  0  0  0  0  0  0
    2.6410    4.3687   -0.5271 H   0  0  0  0  0  0  0  0  0  0  0  0
    1.7963   -4.5118    0.7722 H   0  0  0  0  0  0  0  0  0  0  0  0
    3.2799    3.2002   -2.6130 H   0  0  0  0  0  0  0  0  0  0  0  0
    2.5840   -4.1227   -1.5414 H   0  0  0  0  0  0  0  0  0  0  0  0
   -4.4712    0.0503    1.0081 H   0  0  0  0  0  0  0  0  0  0  0  0
   -2.1473    0.0730   -0.7899 H   0  0  0  0  0  0  0  0  0  0  0  0
   -5.5962    1.9044   -0.2423 H   0  0  0  0  0  0  0  0  0  0  0  0
   -4.1067    2.4839    0.5247 H   0  0  0  0  0  0  0  0  0  0  0  0
   -4.1378    2.1478   -1.2120 H   0  0  0  0  0  0  0  0  0  0  0  0
   -4.2174   -1.8503   -2.3866 H   0  0  0  0  0  0  0  0  0  0  0  0
  1 11  1  0  0  0  0
  1 20  1  0  0  0  0
  2 20  2  0  0  0  0
  3 23  1  0  0  0  0
  3 40  1  0  0  0  0
  4 23  2  0  0  0  0
  5 20  1  0  0  0  0
  5 21  1  0  0  0  0
  5 36  1  0  0  0  0
  6  7  1  0  0  0  0
  6  8  1  0  0  0  0
  6 11  1  0  0  0  0
  6 24  1  0  0  0  0
  7  9  1  0  0  0  0
  7 12  2  0  0  0  0
  8 10  1  0  0  0  0
  8 13  2  0  0  0  0
  9 10  1  0  0  0  0
  9 14  2  0  0  0  0
 10 15  2  0  0  0  0
 11 25  1  0  0  0  0
 11 26  1  0  0  0  0
 12 16  1  0  0  0  0
 12 27  1  0  0  0  0
 13 17  1  0  0  0  0
 13 28  1  0  0  0  0
 14 18  1  0  0  0  0
 14 29  1  0  0  0  0
 15 19  1  0  0  0  0
 15 30  1  0  0  0  0
 16 18  2  0  0  0  0
 16 31  1  0  0  0  0
 17 19  2  0  0  0  0
 17 32  1  0  0  0  0
 18 33  1  0  0  0  0
 19 34  1  0  0  0  0
 21 22  1  0  0  0  0
 21 23  1  0  0  0  0
 21 35  1  0  0  0  0
 22 37  1  0  0  0  0
 22 38  1  0  0  0  0
 22 39  1  0  0  0  0
M  END
> <PUBCHEM_COMPOUND_CID>
6364642

> <PUBCHEM_CONFORMER_RMSD>
0.8

> <PUBCHEM_CONFORMER_DIVERSEORDER>
1
46
32
79
64
26
20
73
70
41
38
33
6
36
31
53
77
43
67
10
47
37
78
16
39
82
24
34
40
57
15
2
60
63
21
50
8
75
55
44
4
23
18
14
61
13
22
25
83
11
66
65
51
42
74
9
71
30
81
59
58
35
62
12
52
80
17
56
54
27
49
3
69
45
28
68
19
48
29
72
5
7
76

> <PUBCHEM_MMFF94_PARTIAL_CHARGES>
30
1 -0.43
11 0.28
12 -0.15
13 -0.15
14 -0.15
15 -0.15
16 -0.15
17 -0.15
18 -0.15
19 -0.15
2 -0.57
20 0.78
21 0.36
23 0.66
27 0.15
28 0.15
29 0.15
3 -0.65
30 0.15
31 0.15
32 0.15
33 0.15
34 0.15
36 0.37
4 -0.57
40 0.5
5 -0.73
6 0.29
7 -0.14
8 -0.14

> <PUBCHEM_EFFECTIVE_ROTOR_COUNT>
6.2

> <PUBCHEM_PHARMACOPHORE_FEATURES>
8
1 2 acceptor
1 3 acceptor
1 4 acceptor
1 5 donor
3 3 4 23 anion
5 6 7 8 9 10 rings
6 7 9 12 14 16 18 rings
6 8 10 13 15 17 19 rings

> <PUBCHEM_HEAVY_ATOM_COUNT>
23

> <PUBCHEM_ATOM_DEF_STEREO_COUNT>
1

> <PUBCHEM_ATOM_UDEF_STEREO_COUNT>
0

> <PUBCHEM_BOND_DEF_STEREO_COUNT>
0

> <PUBCHEM_BOND_UDEF_STEREO_COUNT>
0

> <PUBCHEM_ISOTOPIC_ATOM_COUNT>
0

> <PUBCHEM_COMPONENT_COUNT>
1

> <PUBCHEM_CACTVS_TAUTO_COUNT>
2

> <PUBCHEM_CONFORMER_ID>
00611DE200000001

> <PUBCHEM_MMFF94_ENERGY>
61.2185

> <PUBCHEM_FEATURE_SELFOVERLAP>
40.818

> <PUBCHEM_SHAPE_FINGERPRINT>
10042902 136 17200246828583672182
10764073 3 15143447738794288392
10928967 22 17346311665903695919
10930396 42 18115846591952082936
11578080 2 17477767880503461120
13134695 92 17604140412165583162
13899415 180 17972020453978345946
14863182 85 17988912375865235562
15324115 91 18340198691507473827
15664445 248 17631163281108874425
15842332 3 17915760716122747561
20600515 1 15623979249505430618
20626108 58 18126274251410984499
21033648 29 14058094564739844949
21304303 282 17473805699757724512
21421566 26 17118075840878373358
21860390 5 17821720646092575348
235170 7 18114170982774722759
23559900 14 18200585900700319239
238 59 18336275620928990986
25222932 49 16843574288948977215
26353 1 17903372415543721534
3004659 81 18130218264708756591
3060560 45 18337110172109260388
312425 83 18261954059904663477
340366 18 18052819140061828949
341906 21 14707211045802208737
34797466 226 17895184525057526087
4409770 3 17334783466784802240
46194498 28 18260267425957133549
5281201 14 18261952943207761333
7471813 234 18193564363563190018
7808743 9 13841423690841972687
81228 2 17251471885889491352
8988823 20 10087631569122376329
960060 61 18272645762654864453

> <PUBCHEM_SHAPE_MULTIPOLES>
444.87
8.84
3.75
1.98
18.52
0.82
0.29
-0.63
-4.61
-5.2
-0.94
0.05
-0.07
-1.22

> <PUBCHEM_SHAPE_SELFOVERLAP>
967.041

> <PUBCHEM_SHAPE_VOLUME>
243.7

> <PUBCHEM_COORDINATE_TYPE>
2
5
10

$$$$
